$DATA1 SOURCE='HSPICE' VERSION='L-2016.06-SP1 linux64' PARAM_COUNT=1
$OPTION MEASFORM=3
.TITLE '*simple nmos inverter'
reltime,tlh,thl,tpd,avgpower,temper,alter#
 6.300e+07, 1.211e-10, 3.029e-11, 1.362e-10, 4.612e-07,  70.0000,1
 1.260e+08, 1.226e-10, 3.081e-11, 1.380e-10, 4.584e-07,  70.0000,1
 1.890e+08, 1.252e-10, 3.052e-11, 1.405e-10, 4.591e-07,  70.0000,1
 2.520e+08, 1.263e-10, 3.075e-11, 1.416e-10, 4.587e-07,  70.0000,1
 3.150e+08, 1.268e-10, 3.094e-11, 1.422e-10, 4.580e-07,  70.0000,1
 3.780e+08, 1.273e-10, 3.110e-11, 1.428e-10, 4.564e-07,  70.0000,1
